CM --- NEC2 Input File created or edited by xnec2c 4.1.1 ---
CE --- End Comments ---
GW     1    15   0.00000E+00  0.00000E+00  6.00000E-01  0.00000E+00  0.00000E+00  6.60000E+00  7.50000E-04
GW     2     3   0.00000E+00  0.00000E+00  6.00000E-01  0.00000E+00  0.00000E+00  1.00000E-01  7.50000E-04
GW     3    15   0.00000E+00  0.00000E+00  1.00000E-01  1.00000E+00  0.00000E+00  1.00000E-01  1.00000E-03
GA     4    15  3.00000E+00 -6.00000E+01  1.80000E+02  1.00000E-03  5.58877E+00  0.00000E+00  0.00000E+00
GM     0     0   9.00000E+01  0.00000E+00  9.00000E+01  1.00000E+00  3.00000E+00  1.00000E-01  4.00000E+00
GM     2     3   0.00000E+00  0.00000E+00  9.00000E+01  0.00000E+00  0.00000E+00  0.00000E+00  3.00000E+00
GE     0     0   0.00000E+00  0.00000E+00  0.00000E+00  0.00000E+00  0.00000E+00  0.00000E+00  0.00000E+00
EX     0     2     3      0  1.00000E+00  0.00000E+00  0.00000E+00  0.00000E+00  0.00000E+00  0.00000E+00
LD     0     2     1      1  0.00000E+00  6.00000E-06  0.00000E+00  0.00000E+00  0.00000E+00  0.00000E+00
FR     0    50     0      0  5.00000E+00  3.06122E-01  2.00000E+01  0.00000E+00  0.00000E+00  0.00000E+00
RP     0    19    37   1000  0.00000E+00  0.00000E+00  5.00000E+00  1.00000E+01  0.00000E+00  0.00000E+00
GN     2     0     0      0  1.20000E+01  1.00000E-02  0.00000E+00  0.00000E+00  0.00000E+00  0.00000E+00
EN     0     0     0      0  0.00000E+00  0.00000E+00  0.00000E+00  0.00000E+00  0.00000E+00  0.00000E+00
