CM --- NEC2 Input File created by xnec2c-1.5 ---
CE --- End Comments ---
GW     1    15   0.00000E+00 -2.00000E+00  0.00000E+00  0.00000E+00  2.00000E+00  0.00000E+00  2.50000E-02
GW     2    15   0.00000E+00 -2.00001E+00  0.00000E+00  0.00000E+00 -2.00000E+00  5.00000E+00  2.50000E-02
GW     3    15   0.00000E+00  2.00000E+00  0.00000E+00  0.00000E+00  2.00000E+00  5.00000E+00  2.50000E-02
GW     4    15   0.00000E+00 -2.00000E+00  5.00000E+00  0.00000E+00  2.00000E+00  5.00000E+00  2.50000E-02
GM    10     0   0.00000E+00  0.00000E+00  0.00000E+00  0.00000E+00  0.00000E+00  1.00000E-01  1.00000E+00
GE    -1     0   0.00000E+00  0.00000E+00  0.00000E+00  0.00000E+00  0.00000E+00  0.00000E+00  0.00000E+00
EX     0    14     8      0  1.00000E+00  0.00000E+00  0.00000E+00  0.00000E+00  0.00000E+00  0.00000E+00
FR     0    11     0      0  2.00000E+00  3.00000E-01  5.00000E+00  0.00000E+00  0.00000E+00  0.00000E+00
LD     0    14     2      3  0.00000E+00  0.00000E+00  3.00000E-10  0.00000E+00  0.00000E+00  0.00000E+00
NH     0    10     1      5 -1.00000E+00  0.00000E+00 -9.00000E-01  2.00000E-01  0.00000E+00  2.00000E-01
GN     2     0     0      0  1.00000E+00  1.00000E-01  0.00000E+00  0.00000E+00  0.00000E+00  0.00000E+00
NE     0    10     1     20 -1.10000E+00  0.00000E+00 -9.50000E-01  2.00000E-01  0.00000E+00  5.00000E-02
EN     0     0     0      0  0.00000E+00  0.00000E+00  0.00000E+00  0.00000E+00  0.00000E+00  0.00000E+00
