CM --- NEC2 Input File created by xnec2c-1.5 ---
CE --- End Comments ---
GW     1    15  -1.02500E+01  0.00000E+00  5.00000E+00  1.02500E+01  0.00000E+00  5.00000E+00  1.50000E-03
GE    -1     0   0.00000E+00  0.00000E+00  0.00000E+00  0.00000E+00  0.00000E+00  0.00000E+00  0.00000E+00
EX     0     1     8      0  1.00000E+00  0.00000E+00  0.00000E+00  0.00000E+00  0.00000E+00  0.00000E+00
FR     0    11     0      0  6.50000E+00  1.00000E-01  7.50000E+00  0.00000E+00  0.00000E+00  0.00000E+00
GN     2     0     0     0  1.20000E+01  5.00000E-02  0.00000E+00  0.00000E+00  0.00000E+00  0.00000E+00
NH     0     0     0      0  0.00000E+00  0.00000E+00  0.00000E+00  0.00000E+00  0.00000E+00  0.00000E+00
NE     0    10     1     10 -1.35000E+00  0.00000E+00 -1.35000E+00  3.00000E-01  0.00000E+00  3.00000E-01
RP     0    19    37      0  0.00000E+00  0.00000E+00  5.00000E+00  1.00000E+01  0.00000E+00  0.00000E+00
EN     0     0     0      0  0.00000E+00  0.00000E+00  0.00000E+00  0.00000E+00  0.00000E+00  0.00000E+00
