CM --- NEC2 Input File created by xnec2c-1.5 ---
CE --- End Comments ---
GA     1    24   6.00000E-01  0.00000E+00  3.60000E+02  7.50000E-03  4.19158E-01  1.00000E+03  0.00000E+00
GM     2     0   0.00000E+00  7.50000E+00  0.00000E+00  0.00000E+00  0.00000E+00  1.03000E+00  1.00000E+00
GA     5    11   1.00000E-01  0.00000E+00  3.60000E+02  7.50000E-04  2.28632E-01  0.00000E+00  0.00000E+00
GM    10     0   0.00000E+00  0.00000E+00  0.00000E+00  0.00000E+00  0.00000E+00  5.50000E-01  5.00000E+00
GW    16     1  -1.00000E-02  5.00000E-01  9.00000E-01  1.00000E-02  5.00000E-01  9.00000E-01  1.50000E-03
GE    -1     0   0.00000E+00  0.00000E+00  0.00000E+00  0.00000E+00  0.00000E+00  0.00000E+00  0.00000E+00
EX     0    16     1      0  1.00000E+00  0.00000E+00  0.00000E+00  0.00000E+00  0.00000E+00  0.00000E+00
TL    15     6    16      1  5.00000E+01  1.00000E-01  0.00000E+00  0.00000E+00  0.00000E+00  0.00000E+00
FR     0   100     0      0  7.00000E+00  1.01010E-03  7.10000E+00  0.00000E+00  0.00000E+00  0.00000E+00
NH     0     0     0      0  0.00000E+00  0.00000E+00  0.00000E+00  0.00000E+00  0.00000E+00  0.00000E+00
NE     0    30     1     50 -1.45000E+00  0.00000E+00 -2.00000E+00  1.00000E-01  0.00000E+00  1.00000E-01
RP     0     9    37      0  0.00000E+00  0.00000E+00  1.00000E+01  1.00000E+01  0.00000E+00  0.00000E+00
LD     0     3     7      7  3.00000E-01  1.00000E-11  1.48000E-10  0.00000E+00  0.00000E+00  0.00000E+00
LD     0    15     1      1  5.00000E-02  0.00000E+00  8.50000E-10  0.00000E+00  0.00000E+00  0.00000E+00
GN     1     0     0      0  0.00000E+00  0.00000E+00  0.00000E+00  0.00000E+00  0.00000E+00  0.00000E+00
EN     0     0     0      0  0.00000E+00  0.00000E+00  0.00000E+00  0.00000E+00  0.00000E+00  0.00000E+00
