CM --- NEC2 Input File created by xnec2c-1.5 ---
CE --- End Comments ---
GW     1    15   0.00000E+00 -9.00000E+00  2.50000E+00  0.00000E+00 -1.00000E-01  7.00000E+00  1.00000E-03
GW     2     1   0.00000E+00 -1.00000E-01  7.00000E+00  0.00000E+00  1.00000E-01  7.00000E+00  1.00000E-03
GW     3    15   0.00000E+00  1.00000E-01  7.00000E+00  0.00000E+00  9.00000E+00  2.50000E+00  1.00000E-03
GM    10     0   0.00000E+00  0.00000E+00  0.00000E+00  0.00000E+00  0.00000E+00  0.00000E+00  0.00000E+00
GW     4    15   0.00000E+00 -1.02500E+01  1.25000E+00  0.00000E+00  1.02500E+01  1.25000E+00  1.00000E-03
GE    -1     0   0.00000E+00  0.00000E+00  0.00000E+00  0.00000E+00  0.00000E+00  0.00000E+00  0.00000E+00
EX     0    12     1      0  1.00000E+00  0.00000E+00  0.00000E+00  0.00000E+00  0.00000E+00  0.00000E+00
GN     2     0     0      0  1.20000E+01  5.00000E-03  0.00000E+00  0.00000E+00  0.00000E+00  0.00000E+00
FR     0    50     0      0  6.50000E+00  3.06122E-02  8.00000E+00  0.00000E+00  0.00000E+00  0.00000E+00
NH     0     0     0      0  0.00000E+00  0.00000E+00  0.00000E+00  0.00000E+00  0.00000E+00  0.00000E+00
NE     0    10     1     10 -1.35000E+00  0.00000E+00 -1.35000E+00  3.00000E-01  0.00000E+00  3.00000E-01
RP     0     9    37      0  0.00000E+00  0.00000E+00  1.00000E+01  1.00000E+01  0.00000E+00  0.00000E+00
EN     0     0     0      0  0.00000E+00  0.00000E+00  0.00000E+00  0.00000E+00  0.00000E+00  0.00000E+00
