CM --- NEC2 Input File created by xnec2c-1.5 ---
CE --- End Comments ---
GW     1    15   0.00000E+00 -1.00000E+01  1.00000E+00  0.00000E+00 -1.00000E-01  7.00000E+00  1.00000E-03
GW     2     1   0.00000E+00 -1.00000E-01  7.00000E+00  0.00000E+00  1.00000E-01  7.00000E+00  1.00000E-03
GW     3    15   0.00000E+00  1.00000E-01  7.00000E+00  0.00000E+00  1.00000E+01  1.00000E+00  1.00000E-03
GW     1    15   0.00000E+00 -1.00000E+01  1.00000E+00  0.00000E+00  1.00000E+01  1.00000E+00  1.00000E-03
GE    -1     0   0.00000E+00  0.00000E+00  0.00000E+00  0.00000E+00  0.00000E+00  0.00000E+00  0.00000E+00
EX     0     2     1      0  1.00000E+00  0.00000E+00  0.00000E+00  0.00000E+00  0.00000E+00  0.00000E+00
FR     0    50     0      0  6.00000E+00  4.08163E-02  8.00000E+00  0.00000E+00  0.00000E+00  0.00000E+00
GN     1     0     0      0  0.00000E+00  0.00000E+00  0.00000E+00  0.00000E+00  0.00000E+00  0.00000E+00
NH     0     0     0      0  0.00000E+00  0.00000E+00  0.00000E+00  0.00000E+00  0.00000E+00  0.00000E+00
NE     0    10     1     10 -1.35000E+00  0.00000E+00 -1.35000E+00  3.00000E-01  0.00000E+00  3.00000E-01
RP     0     9    37      0  0.00000E+00  0.00000E+00  1.00000E+01  1.00000E+01  0.00000E+00  0.00000E+00
EN     0     0     0      0  0.00000E+00  0.00000E+00  0.00000E+00  0.00000E+00  0.00000E+00  0.00000E+00
