CM Finite ground with radials
CE End Comments
GW     1    32   0.00000E+00  0.00000E+00 -3.00000E-01  0.00000E+00  0.00000E+00  1.00000E+01  1.50000E-03
GW     2    15   0.00000E+00  0.00000E+00 -3.00000E-01 -9.50000E+00  0.00000E+00 -3.00000E-01  1.50000E-03
GW     3    15   0.00000E+00  0.00000E+00 -3.00000E-01  9.50000E+00  0.00000E+00 -3.00000E-01  1.50000E-03
GE    -1     0   0.00000E+00  0.00000E+00  0.00000E+00  0.00000E+00  0.00000E+00  0.00000E+00  0.00000E+00
EX     0     1     3      0  1.00000E+00  0.00000E+00  0.00000E+00  0.00000E+00  0.00000E+00  0.00000E+00
FR     0    50     0      0  6.80000E+00  2.04082E-02  7.80000E+00  0.00000E+00  0.00000E+00  0.00000E+00
NH     0     0     0      0  0.00000E+00  0.00000E+00  0.00000E+00  0.00000E+00  0.00000E+00  0.00000E+00
NE     0     1    20     15  0.00000E+00 -9.50000E+00 -1.50000E+00  0.00000E+00  1.00000E+00  1.00000E+00
RP     0    19    37   1000  0.00000E+00  0.00000E+00  5.00000E+00  1.00000E+01  0.00000E+00  0.00000E+00
GN     2     0     0      0  1.20000E+01  5.00000E-03  0.00000E+00  0.00000E+00  0.00000E+00  0.00000E+00
EN     0     0     0      0  0.00000E+00  0.00000E+00  0.00000E+00  0.00000E+00  0.00000E+00  0.00000E+00
